opendss/LVTestCase/data/PV/PV_671.txt
New generator.m_gen49 Phases=1 Bus1=861.1 kV=0.23 kW=1 PF=0.95 Yearly=NM_Shape_69
New generator.m_gen23 Phases=1 Bus1=406.2 kV=0.23 kW=1 PF=0.95 Yearly=PV_Shape_117
New generator.m_gen37 Phases=1 Bus1=682.2 kV=0.23 kW=1 PF=0.95 Yearly=NM_Shape_132
New generator.m_gen42 Phases=1 Bus1=778.3 kV=0.23 kW=1 PF=0.95 Yearly=NM_Shape_34
New generator.m_gen5 Phases=1 Bus1=74.1 kV=0.23 kW=1 PF=0.95 Yearly=NM_Shape_160
New generator.m_gen39 Phases=1 Bus1=701.3 kV=0.23 kW=1 PF=0.95 Yearly=PV_Shape_159
New generator.m_gen46 Phases=1 Bus1=817.1 kV=0.23 kW=1 PF=0.95 Yearly=PV_Shape_140
New generator.m_gen53 Phases=1 Bus1=899.2 kV=0.23 kW=1 PF=0.95 Yearly=NM_Shape_110
New generator.m_gen7 Phases=1 Bus1=178.2 kV=0.23 kW=1 PF=0.95 Yearly=PV_Shape_51
New generator.m_gen43 Phases=1 Bus1=780.3 kV=0.23 kW=1 PF=0.95 Yearly=NM_Shape_130
New generator.m_gen40 Phases=1 Bus1=702.2 kV=0.23 kW=1 PF=0.95 Yearly=NM_Shape_153
New generator.m_gen45 Phases=1 Bus1=813.2 kV=0.23 kW=1 PF=0.95 Yearly=PV_Shape_96
New generator.m_gen14 Phases=1 Bus1=289.1 kV=0.23 kW=1 PF=0.95 Yearly=NM_Shape_157
New generator.m_gen10 Phases=1 Bus1=248.2 kV=0.23 kW=1 PF=0.95 Yearly=NM_Shape_22
New generator.m_gen50 Phases=1 Bus1=886.2 kV=0.23 kW=1 PF=0.95 Yearly=NM_Shape_123
New generator.m_gen33 Phases=1 Bus1=619.3 kV=0.23 kW=1 PF=0.95 Yearly=NM_Shape_75
New generator.m_gen32 Phases=1 Bus1=614.3 kV=0.23 kW=1 PF=0.95 Yearly=NM_Shape_1
New generator.m_gen47 Phases=1 Bus1=835.3 kV=0.23 kW=1 PF=0.95 Yearly=NM_Shape_119
New generator.m_gen20 Phases=1 Bus1=349.1 kV=0.23 kW=1 PF=0.95 Yearly=PV_Shape_59
New generator.m_gen38 Phases=1 Bus1=688.2 kV=0.23 kW=1 PF=0.95 Yearly=NM_Shape_122
New generator.m_gen51 Phases=1 Bus1=896.1 kV=0.23 kW=1 PF=0.95 Yearly=PV_Shape_8
New generator.m_gen15 Phases=1 Bus1=314.2 kV=0.23 kW=1 PF=0.95 Yearly=PV_Shape_44
New generator.m_gen13 Phases=1 Bus1=276.2 kV=0.23 kW=1 PF=0.95 Yearly=PV_Shape_91
New generator.m_gen44 Phases=1 Bus1=785.2 kV=0.23 kW=1 PF=0.95 Yearly=NM_Shape_93
New generator.m_gen31 Phases=1 Bus1=611.1 kV=0.23 kW=1 PF=0.95 Yearly=PV_Shape_38
New generator.m_gen8 Phases=1 Bus1=208.3 kV=0.23 kW=1 PF=0.95 Yearly=PV_Shape_66
New generator.m_gen1 Phases=1 Bus1=34.1 kV=0.23 kW=1 PF=0.95 Yearly=NM_Shape_25
New generator.m_gen34 Phases=1 Bus1=629.1 kV=0.23 kW=1 PF=0.95 Yearly=PV_Shape_67
New generator.m_gen55 Phases=1 Bus1=906.1 kV=0.23 kW=1 PF=0.95 Yearly=NM_Shape_70
New generator.m_gen21 Phases=1 Bus1=387.1 kV=0.23 kW=1 PF=0.95 Yearly=NM_Shape_33
New generator.m_gen41 Phases=1 Bus1=755.2 kV=0.23 kW=1 PF=0.95 Yearly=NM_Shape_144
New generator.m_gen17 Phases=1 Bus1=327.3 kV=0.23 kW=1 PF=0.95 Yearly=NM_Shape_87
New generator.m_gen25 Phases=1 Bus1=502.1 kV=0.23 kW=1 PF=0.95 Yearly=NM_Shape_89
New generator.m_gen35 Phases=1 Bus1=639.2 kV=0.23 kW=1 PF=0.95 Yearly=NM_Shape_80
New generator.m_gen12 Phases=1 Bus1=264.3 kV=0.23 kW=1 PF=0.95 Yearly=NM_Shape_95
New generator.m_gen52 Phases=1 Bus1=898.1 kV=0.23 kW=1 PF=0.95 Yearly=NM_Shape_104
New generator.m_gen2 Phases=1 Bus1=47.2 kV=0.23 kW=1 PF=0.95 Yearly=NM_Shape_147
New generator.m_gen9 Phases=1 Bus1=225.1 kV=0.23 kW=1 PF=0.95 Yearly=NM_Shape_83
